/*--------------------------------*- C++ -*----------------------------------*\
| =========                 |                                                 |
| \\      /  F ield         | OpenFOAM: The Open Source CFD Toolbox           |
|  \\    /   O peration     | Version:  dev                                   |
|   \\  /    A nd           | Web:      www.OpenFOAM.org                      |
|    \\/     M anipulation  |                                                 |
\*---------------------------------------------------------------------------*/
FoamFile
{
    version     2.0;
    format      ascii;
    class       dictionary;
    location    "system";
    object      fvSolution;
}
// * * * * * * * * * * * * * * * * * * * * * * * * * * * * * * * * * * * * * //

solvers
{
    "(elevation)"
    {
        solver          PBiCGStab;
        preconditioner  DIC;
        tolerance       1e-9;
        relTol          0;
        minIter         2;

    }


}

PIMPLE
{
    nOuterCorrectors 1;
    nCorrectors     3;
    nNonOrthogonalCorrectors 0;
    pRefCell        0;
    pRefValue       0;
}


PISO
{
    nCorrectors     3;
    nNonOrthogonalCorrectors 0;
    pRefCell        0;
    pRefValue       0;
}

SIMPLE
{
    nNonOrthogonalCorrectors 0;
}

// ************************************************************************* //
