/*--------------------------------*- C++ -*----------------------------------*\
| =========                 |                                                 |
| \\      /  F ield         | OpenFOAM: The Open Source CFD Toolbox           |
|  \\    /   O peration     | Version:  5                                     |
|   \\  /    A nd           | Web:      www.OpenFOAM.org                      |
|    \\/     M anipulation  |                                                 |
\*---------------------------------------------------------------------------*/
FoamFile
{
version     2.0;
format      ascii;
class       dictionary;
location    "system";
object      sample;
}
// * * * * * * * * * * * * * * * * * * * * * * * * * * * * * * * * * * * * * //
type sets;
libs            ("libsampling.so");
interpolationScheme cellPoint;
setFormat       raw;
sets
(
somePoints5
{
type    points;
ordered
axis    xyz;
points 	(
( -0.5500000  -0.5500000   0.0100000 )
( -0.5500000  -0.5400000   0.0100000 )
( -0.5500000  -0.5300000   0.0100000 )
( -0.5500000  -0.5200000   0.0100000 )
( -0.5500000  -0.5100000   0.0100000 )
( -0.5500000  -0.5000000   0.0100000 )
( -0.5500000  -0.4900000   0.0100000 )
( -0.5500000  -0.4800000   0.0100000 )
( -0.5500000  -0.4700000   0.0100000 )
( -0.5500000  -0.4600000   0.0100000 )
( -0.5500000  -0.4500000   0.0100000 )
( -0.5500000  -0.4400000   0.0100000 )
( -0.5500000  -0.4300000   0.0100000 )
( -0.5500000  -0.4200000   0.0100000 )
( -0.5500000  -0.4100000   0.0100000 )
( -0.5500000  -0.4000000   0.0100000 )
( -0.5500000  -0.3900000   0.0100000 )
( -0.5500000  -0.3800000   0.0100000 )
( -0.5500000  -0.3700000   0.0100000 )
( -0.5500000  -0.3600000   0.0100000 )
( -0.5500000  -0.3500000   0.0100000 )
( -0.5500000  -0.3400000   0.0100000 )
( -0.5500000  -0.3300000   0.0100000 )
( -0.5500000  -0.3200000   0.0100000 )
( -0.5500000  -0.3100000   0.0100000 )
( -0.5500000  -0.3000000   0.0100000 )
( -0.5500000  -0.2900000   0.0100000 )
( -0.5500000  -0.2800000   0.0100000 )
( -0.5500000  -0.2700000   0.0100000 )
( -0.5500000  -0.2600000   0.0100000 )
( -0.5500000  -0.2500000   0.0100000 )
( -0.5500000  -0.2400000   0.0100000 )
( -0.5500000  -0.2300000   0.0100000 )
( -0.5500000  -0.2200000   0.0100000 )
( -0.5500000  -0.2100000   0.0100000 )
( -0.5500000  -0.2000000   0.0100000 )
( -0.5500000  -0.1900000   0.0100000 )
( -0.5500000  -0.1800000   0.0100000 )
( -0.5500000  -0.1700000   0.0100000 )
( -0.5500000  -0.1600000   0.0100000 )
( -0.5500000  -0.1500000   0.0100000 )
( -0.5500000  -0.1400000   0.0100000 )
( -0.5500000  -0.1300000   0.0100000 )
( -0.5500000  -0.1200000   0.0100000 )
( -0.5500000  -0.1100000   0.0100000 )
( -0.5500000  -0.1000000   0.0100000 )
( -0.5500000  -0.0900000   0.0100000 )
( -0.5500000  -0.0800000   0.0100000 )
( -0.5500000  -0.0700000   0.0100000 )
( -0.5500000  -0.0600000   0.0100000 )
( -0.5500000  -0.0500000   0.0100000 )
( -0.5500000  -0.0400000   0.0100000 )
( -0.5500000  -0.0300000   0.0100000 )
( -0.5500000  -0.0200000   0.0100000 )
( -0.5500000  -0.0100000   0.0100000 )
( -0.5500000   0.0000000   0.0100000 )
( -0.5500000   0.0100000   0.0100000 )
( -0.5500000   0.0200000   0.0100000 )
( -0.5500000   0.0300000   0.0100000 )
( -0.5500000   0.0400000   0.0100000 )
( -0.5500000   0.0500000   0.0100000 )
( -0.5500000   0.0600000   0.0100000 )
( -0.5500000   0.0700000   0.0100000 )
( -0.5500000   0.0800000   0.0100000 )
( -0.5500000   0.0900000   0.0100000 )
( -0.5500000   0.1000000   0.0100000 )
( -0.5500000   0.1100000   0.0100000 )
( -0.5500000   0.1200000   0.0100000 )
( -0.5500000   0.1300000   0.0100000 )
( -0.5500000   0.1400000   0.0100000 )
( -0.5500000   0.1500000   0.0100000 )
( -0.5500000   0.1600000   0.0100000 )
( -0.5500000   0.1700000   0.0100000 )
( -0.5500000   0.1800000   0.0100000 )
( -0.5500000   0.1900000   0.0100000 )
( -0.5500000   0.2000000   0.0100000 )
( -0.5500000   0.2100000   0.0100000 )
( -0.5500000   0.2200000   0.0100000 )
( -0.5500000   0.2300000   0.0100000 )
( -0.5500000   0.2400000   0.0100000 )
( -0.5500000   0.2500000   0.0100000 )
( -0.5500000   0.2600000   0.0100000 )
( -0.5500000   0.2700000   0.0100000 )
( -0.5500000   0.2800000   0.0100000 )
( -0.5500000   0.2900000   0.0100000 )
( -0.5500000   0.3000000   0.0100000 )
( -0.5500000   0.3100000   0.0100000 )
( -0.5500000   0.3200000   0.0100000 )
( -0.5500000   0.3300000   0.0100000 )
( -0.5500000   0.3400000   0.0100000 )
( -0.5500000   0.3500000   0.0100000 )
( -0.5500000   0.3600000   0.0100000 )
( -0.5500000   0.3700000   0.0100000 )
( -0.5500000   0.3800000   0.0100000 )
( -0.5500000   0.3900000   0.0100000 )
( -0.5500000   0.4000000   0.0100000 )
( -0.5500000   0.4100000   0.0100000 )
( -0.5500000   0.4200000   0.0100000 )
( -0.5500000   0.4300000   0.0100000 )
( -0.5500000   0.4400000   0.0100000 )
( -0.5500000   0.4500000   0.0100000 )
( -0.5500000   0.4600000   0.0100000 )
( -0.5500000   0.4700000   0.0100000 )
( -0.5500000   0.4800000   0.0100000 )
( -0.5500000   0.4900000   0.0100000 )
( -0.5500000   0.5000000   0.0100000 )
( -0.5500000   0.5100000   0.0100000 )
( -0.5500000   0.5200000   0.0100000 )
( -0.5500000   0.5300000   0.0100000 )
( -0.5500000   0.5400000   0.0100000 )
( -0.5500000   0.5500000   0.0100000 )
( -0.5400000  -0.5500000   0.0100000 )
( -0.5400000  -0.5400000   0.0100000 )
( -0.5400000  -0.5300000   0.0100000 )
( -0.5400000  -0.5200000   0.0100000 )
( -0.5400000  -0.5100000   0.0100000 )
( -0.5400000  -0.5000000   0.0100000 )
( -0.5400000  -0.4900000   0.0100000 )
( -0.5400000  -0.4800000   0.0100000 )
( -0.5400000  -0.4700000   0.0100000 )
( -0.5400000  -0.4600000   0.0100000 )
( -0.5400000  -0.4500000   0.0100000 )
( -0.5400000  -0.4400000   0.0100000 )
( -0.5400000  -0.4300000   0.0100000 )
( -0.5400000  -0.4200000   0.0100000 )
( -0.5400000  -0.4100000   0.0100000 )
( -0.5400000  -0.4000000   0.0100000 )
( -0.5400000  -0.3900000   0.0100000 )
( -0.5400000  -0.3800000   0.0100000 )
( -0.5400000  -0.3700000   0.0100000 )
( -0.5400000  -0.3600000   0.0100000 )
( -0.5400000  -0.3500000   0.0100000 )
( -0.5400000  -0.3400000   0.0100000 )
( -0.5400000  -0.3300000   0.0100000 )
( -0.5400000  -0.3200000   0.0100000 )
( -0.5400000  -0.3100000   0.0100000 )
( -0.5400000  -0.3000000   0.0100000 )
( -0.5400000  -0.2900000   0.0100000 )
( -0.5400000  -0.2800000   0.0100000 )
( -0.5400000  -0.2700000   0.0100000 )
( -0.5400000  -0.2600000   0.0100000 )
( -0.5400000  -0.2500000   0.0100000 )
( -0.5400000  -0.2400000   0.0100000 )
( -0.5400000  -0.2300000   0.0100000 )
( -0.5400000  -0.2200000   0.0100000 )
( -0.5400000  -0.2100000   0.0100000 )
( -0.5400000  -0.2000000   0.0100000 )
( -0.5400000  -0.1900000   0.0100000 )
( -0.5400000  -0.1800000   0.0100000 )
( -0.5400000  -0.1700000   0.0100000 )
( -0.5400000  -0.1600000   0.0100000 )
( -0.5400000  -0.1500000   0.0100000 )
( -0.5400000  -0.1400000   0.0100000 )
( -0.5400000  -0.1300000   0.0100000 )
( -0.5400000  -0.1200000   0.0100000 )
( -0.5400000  -0.1100000   0.0100000 )
( -0.5400000  -0.1000000   0.0100000 )
( -0.5400000  -0.0900000   0.0100000 )
( -0.5400000  -0.0800000   0.0100000 )
( -0.5400000  -0.0700000   0.0100000 )
( -0.5400000  -0.0600000   0.0100000 )
( -0.5400000  -0.0500000   0.0100000 )
( -0.5400000  -0.0400000   0.0100000 )
( -0.5400000  -0.0300000   0.0100000 )
( -0.5400000  -0.0200000   0.0100000 )
( -0.5400000  -0.0100000   0.0100000 )
( -0.5400000   0.0000000   0.0100000 )
( -0.5400000   0.0100000   0.0100000 )
( -0.5400000   0.0200000   0.0100000 )
( -0.5400000   0.0300000   0.0100000 )
( -0.5400000   0.0400000   0.0100000 )
( -0.5400000   0.0500000   0.0100000 )
( -0.5400000   0.0600000   0.0100000 )
( -0.5400000   0.0700000   0.0100000 )
( -0.5400000   0.0800000   0.0100000 )
( -0.5400000   0.0900000   0.0100000 )
( -0.5400000   0.1000000   0.0100000 )
( -0.5400000   0.1100000   0.0100000 )
( -0.5400000   0.1200000   0.0100000 )
( -0.5400000   0.1300000   0.0100000 )
( -0.5400000   0.1400000   0.0100000 )
( -0.5400000   0.1500000   0.0100000 )
( -0.5400000   0.1600000   0.0100000 )
( -0.5400000   0.1700000   0.0100000 )
( -0.5400000   0.1800000   0.0100000 )
( -0.5400000   0.1900000   0.0100000 )
( -0.5400000   0.2000000   0.0100000 )
( -0.5400000   0.2100000   0.0100000 )
( -0.5400000   0.2200000   0.0100000 )
( -0.5400000   0.2300000   0.0100000 )
( -0.5400000   0.2400000   0.0100000 )
( -0.5400000   0.2500000   0.0100000 )
( -0.5400000   0.2600000   0.0100000 )
( -0.5400000   0.2700000   0.0100000 )
( -0.5400000   0.2800000   0.0100000 )
( -0.5400000   0.2900000   0.0100000 )
( -0.5400000   0.3000000   0.0100000 )
( -0.5400000   0.3100000   0.0100000 )
( -0.5400000   0.3200000   0.0100000 )
( -0.5400000   0.3300000   0.0100000 )
( -0.5400000   0.3400000   0.0100000 )
( -0.5400000   0.3500000   0.0100000 )
( -0.5400000   0.3600000   0.0100000 )
( -0.5400000   0.3700000   0.0100000 )
( -0.5400000   0.3800000   0.0100000 )
( -0.5400000   0.3900000   0.0100000 )
( -0.5400000   0.4000000   0.0100000 )
( -0.5400000   0.4100000   0.0100000 )
( -0.5400000   0.4200000   0.0100000 )
( -0.5400000   0.4300000   0.0100000 )
( -0.5400000   0.4400000   0.0100000 )
( -0.5400000   0.4500000   0.0100000 )
( -0.5400000   0.4600000   0.0100000 )
( -0.5400000   0.4700000   0.0100000 )
( -0.5400000   0.4800000   0.0100000 )
( -0.5400000   0.4900000   0.0100000 )
( -0.5400000   0.5000000   0.0100000 )
( -0.5400000   0.5100000   0.0100000 )
( -0.5400000   0.5200000   0.0100000 )
( -0.5400000   0.5300000   0.0100000 )
( -0.5400000   0.5400000   0.0100000 )
( -0.5400000   0.5500000   0.0100000 )
( -0.5300000  -0.5500000   0.0100000 )
( -0.5300000  -0.5400000   0.0100000 )
( -0.5300000  -0.5300000   0.0100000 )
( -0.5300000  -0.5200000   0.0100000 )
( -0.5300000  -0.5100000   0.0100000 )
( -0.5300000  -0.5000000   0.0100000 )
( -0.5300000  -0.4900000   0.0100000 )
( -0.5300000  -0.4800000   0.0100000 )
( -0.5300000  -0.4700000   0.0100000 )
( -0.5300000  -0.4600000   0.0100000 )
( -0.5300000  -0.4500000   0.0100000 )
( -0.5300000  -0.4400000   0.0100000 )
( -0.5300000  -0.4300000   0.0100000 )
( -0.5300000  -0.4200000   0.0100000 )
( -0.5300000  -0.4100000   0.0100000 )
( -0.5300000  -0.4000000   0.0100000 )
( -0.5300000  -0.3900000   0.0100000 )
( -0.5300000  -0.3800000   0.0100000 )
( -0.5300000  -0.3700000   0.0100000 )
( -0.5300000  -0.3600000   0.0100000 )
( -0.5300000  -0.3500000   0.0100000 )
( -0.5300000  -0.3400000   0.0100000 )
( -0.5300000  -0.3300000   0.0100000 )
( -0.5300000  -0.3200000   0.0100000 )
( -0.5300000  -0.3100000   0.0100000 )
( -0.5300000  -0.3000000   0.0100000 )
( -0.5300000  -0.2900000   0.0100000 )
( -0.5300000  -0.2800000   0.0100000 )
( -0.5300000  -0.2700000   0.0100000 )
( -0.5300000  -0.2600000   0.0100000 )
( -0.5300000  -0.2500000   0.0100000 )
( -0.5300000  -0.2400000   0.0100000 )
( -0.5300000  -0.2300000   0.0100000 )
( -0.5300000  -0.2200000   0.0100000 )
( -0.5300000  -0.2100000   0.0100000 )
( -0.5300000  -0.2000000   0.0100000 )
( -0.5300000  -0.1900000   0.0100000 )
( -0.5300000  -0.1800000   0.0100000 )
( -0.5300000  -0.1700000   0.0100000 )
( -0.5300000  -0.1600000   0.0100000 )
( -0.5300000  -0.1500000   0.0100000 )
( -0.5300000  -0.1400000   0.0100000 )
( -0.5300000  -0.1300000   0.0100000 )
( -0.5300000  -0.1200000   0.0100000 )
( -0.5300000  -0.1100000   0.0100000 )
( -0.5300000  -0.1000000   0.0100000 )
( -0.5300000  -0.0900000   0.0100000 )
( -0.5300000  -0.0800000   0.0100000 )
( -0.5300000  -0.0700000   0.0100000 )
( -0.5300000  -0.0600000   0.0100000 )
( -0.5300000  -0.0500000   0.0100000 )
( -0.5300000  -0.0400000   0.0100000 )
( -0.5300000  -0.0300000   0.0100000 )
( -0.5300000  -0.0200000   0.0100000 )
( -0.5300000  -0.0100000   0.0100000 )
( -0.5300000   0.0000000   0.0100000 )
( -0.5300000   0.0100000   0.0100000 )
( -0.5300000   0.0200000   0.0100000 )
( -0.5300000   0.0300000   0.0100000 )
( -0.5300000   0.0400000   0.0100000 )
( -0.5300000   0.0500000   0.0100000 )
( -0.5300000   0.0600000   0.0100000 )
( -0.5300000   0.0700000   0.0100000 )
( -0.5300000   0.0800000   0.0100000 )
( -0.5300000   0.0900000   0.0100000 )
( -0.5300000   0.1000000   0.0100000 )
( -0.5300000   0.1100000   0.0100000 )
( -0.5300000   0.1200000   0.0100000 )
( -0.5300000   0.1300000   0.0100000 )
( -0.5300000   0.1400000   0.0100000 )
( -0.5300000   0.1500000   0.0100000 )
( -0.5300000   0.1600000   0.0100000 )
( -0.5300000   0.1700000   0.0100000 )
( -0.5300000   0.1800000   0.0100000 )
( -0.5300000   0.1900000   0.0100000 )
( -0.5300000   0.2000000   0.0100000 )
( -0.5300000   0.2100000   0.0100000 )
( -0.5300000   0.2200000   0.0100000 )
( -0.5300000   0.2300000   0.0100000 )
( -0.5300000   0.2400000   0.0100000 )
( -0.5300000   0.2500000   0.0100000 )
( -0.5300000   0.2600000   0.0100000 )
( -0.5300000   0.2700000   0.0100000 )
( -0.5300000   0.2800000   0.0100000 )
( -0.5300000   0.2900000   0.0100000 )
( -0.5300000   0.3000000   0.0100000 )
( -0.5300000   0.3100000   0.0100000 )
( -0.5300000   0.3200000   0.0100000 )
( -0.5300000   0.3300000   0.0100000 )
( -0.5300000   0.3400000   0.0100000 )
( -0.5300000   0.3500000   0.0100000 )
( -0.5300000   0.3600000   0.0100000 )
( -0.5300000   0.3700000   0.0100000 )
( -0.5300000   0.3800000   0.0100000 )
( -0.5300000   0.3900000   0.0100000 )
( -0.5300000   0.4000000   0.0100000 )
( -0.5300000   0.4100000   0.0100000 )
( -0.5300000   0.4200000   0.0100000 )
( -0.5300000   0.4300000   0.0100000 )
( -0.5300000   0.4400000   0.0100000 )
( -0.5300000   0.4500000   0.0100000 )
( -0.5300000   0.4600000   0.0100000 )
( -0.5300000   0.4700000   0.0100000 )
( -0.5300000   0.4800000   0.0100000 )
( -0.5300000   0.4900000   0.0100000 )
( -0.5300000   0.5000000   0.0100000 )
( -0.5300000   0.5100000   0.0100000 )
( -0.5300000   0.5200000   0.0100000 )
( -0.5300000   0.5300000   0.0100000 )
( -0.5300000   0.5400000   0.0100000 )
( -0.5300000   0.5500000   0.0100000 )
( -0.5200000  -0.5500000   0.0100000 )
( -0.5200000  -0.5400000   0.0100000 )
( -0.5200000  -0.5300000   0.0100000 )
( -0.5200000  -0.5200000   0.0100000 )
( -0.5200000  -0.5100000   0.0100000 )
( -0.5200000  -0.5000000   0.0100000 )
( -0.5200000  -0.4900000   0.0100000 )
( -0.5200000  -0.4800000   0.0100000 )
( -0.5200000  -0.4700000   0.0100000 )
( -0.5200000  -0.4600000   0.0100000 )
( -0.5200000  -0.4500000   0.0100000 )
( -0.5200000  -0.4400000   0.0100000 )
( -0.5200000  -0.4300000   0.0100000 )
( -0.5200000  -0.4200000   0.0100000 )
( -0.5200000  -0.4100000   0.0100000 )
( -0.5200000  -0.4000000   0.0100000 )
( -0.5200000  -0.3900000   0.0100000 )
( -0.5200000  -0.3800000   0.0100000 )
( -0.5200000  -0.3700000   0.0100000 )
( -0.5200000  -0.3600000   0.0100000 )
( -0.5200000  -0.3500000   0.0100000 )
( -0.5200000  -0.3400000   0.0100000 )
( -0.5200000  -0.3300000   0.0100000 )
( -0.5200000  -0.3200000   0.0100000 )
( -0.5200000  -0.3100000   0.0100000 )
( -0.5200000  -0.3000000   0.0100000 )
( -0.5200000  -0.2900000   0.0100000 )
( -0.5200000  -0.2800000   0.0100000 )
( -0.5200000  -0.2700000   0.0100000 )
( -0.5200000  -0.2600000   0.0100000 )
( -0.5200000  -0.2500000   0.0100000 )
( -0.5200000  -0.2400000   0.0100000 )
( -0.5200000  -0.2300000   0.0100000 )
( -0.5200000  -0.2200000   0.0100000 )
( -0.5200000  -0.2100000   0.0100000 )
( -0.5200000  -0.2000000   0.0100000 )
( -0.5200000  -0.1900000   0.0100000 )
( -0.5200000  -0.1800000   0.0100000 )
( -0.5200000  -0.1700000   0.0100000 )
( -0.5200000  -0.1600000   0.0100000 )
( -0.5200000  -0.1500000   0.0100000 )
( -0.5200000  -0.1400000   0.0100000 )
( -0.5200000  -0.1300000   0.0100000 )
( -0.5200000  -0.1200000   0.0100000 )
( -0.5200000  -0.1100000   0.0100000 )
( -0.5200000  -0.1000000   0.0100000 )
( -0.5200000  -0.0900000   0.0100000 )
( -0.5200000  -0.0800000   0.0100000 )
( -0.5200000  -0.0700000   0.0100000 )
( -0.5200000  -0.0600000   0.0100000 )
( -0.5200000  -0.0500000   0.0100000 )
( -0.5200000  -0.0400000   0.0100000 )
( -0.5200000  -0.0300000   0.0100000 )
( -0.5200000  -0.0200000   0.0100000 )
( -0.5200000  -0.0100000   0.0100000 )
( -0.5200000   0.0000000   0.0100000 )
( -0.5200000   0.0100000   0.0100000 )
( -0.5200000   0.0200000   0.0100000 )
( -0.5200000   0.0300000   0.0100000 )
( -0.5200000   0.0400000   0.0100000 )
( -0.5200000   0.0500000   0.0100000 )
( -0.5200000   0.0600000   0.0100000 )
( -0.5200000   0.0700000   0.0100000 )
( -0.5200000   0.0800000   0.0100000 )
( -0.5200000   0.0900000   0.0100000 )
( -0.5200000   0.1000000   0.0100000 )
( -0.5200000   0.1100000   0.0100000 )
( -0.5200000   0.1200000   0.0100000 )
( -0.5200000   0.1300000   0.0100000 )
( -0.5200000   0.1400000   0.0100000 )
( -0.5200000   0.1500000   0.0100000 )
( -0.5200000   0.1600000   0.0100000 )
( -0.5200000   0.1700000   0.0100000 )
( -0.5200000   0.1800000   0.0100000 )
( -0.5200000   0.1900000   0.0100000 )
( -0.5200000   0.2000000   0.0100000 )
( -0.5200000   0.2100000   0.0100000 )
( -0.5200000   0.2200000   0.0100000 )
( -0.5200000   0.2300000   0.0100000 )
( -0.5200000   0.2400000   0.0100000 )
( -0.5200000   0.2500000   0.0100000 )
( -0.5200000   0.2600000   0.0100000 )
( -0.5200000   0.2700000   0.0100000 )
( -0.5200000   0.2800000   0.0100000 )
( -0.5200000   0.2900000   0.0100000 )
( -0.5200000   0.3000000   0.0100000 )
( -0.5200000   0.3100000   0.0100000 )
( -0.5200000   0.3200000   0.0100000 )
( -0.5200000   0.3300000   0.0100000 )
( -0.5200000   0.3400000   0.0100000 )
( -0.5200000   0.3500000   0.0100000 )
( -0.5200000   0.3600000   0.0100000 )
( -0.5200000   0.3700000   0.0100000 )
( -0.5200000   0.3800000   0.0100000 )
( -0.5200000   0.3900000   0.0100000 )
( -0.5200000   0.4000000   0.0100000 )
( -0.5200000   0.4100000   0.0100000 )
( -0.5200000   0.4200000   0.0100000 )
( -0.5200000   0.4300000   0.0100000 )
( -0.5200000   0.4400000   0.0100000 )
( -0.5200000   0.4500000   0.0100000 )
( -0.5200000   0.4600000   0.0100000 )
( -0.5200000   0.4700000   0.0100000 )
( -0.5200000   0.4800000   0.0100000 )
( -0.5200000   0.4900000   0.0100000 )
( -0.5200000   0.5000000   0.0100000 )
( -0.5200000   0.5100000   0.0100000 )
( -0.5200000   0.5200000   0.0100000 )
( -0.5200000   0.5300000   0.0100000 )
( -0.5200000   0.5400000   0.0100000 )
( -0.5200000   0.5500000   0.0100000 )
( -0.5100000  -0.5500000   0.0100000 )
( -0.5100000  -0.5400000   0.0100000 )
( -0.5100000  -0.5300000   0.0100000 )
( -0.5100000  -0.5200000   0.0100000 )
( -0.5100000  -0.5100000   0.0100000 )
( -0.5100000  -0.5000000   0.0100000 )
( -0.5100000  -0.4900000   0.0100000 )
( -0.5100000  -0.4800000   0.0100000 )
( -0.5100000  -0.4700000   0.0100000 )
( -0.5100000  -0.4600000   0.0100000 )
( -0.5100000  -0.4500000   0.0100000 )
( -0.5100000  -0.4400000   0.0100000 )
( -0.5100000  -0.4300000   0.0100000 )
( -0.5100000  -0.4200000   0.0100000 )
( -0.5100000  -0.4100000   0.0100000 )
( -0.5100000  -0.4000000   0.0100000 )
( -0.5100000  -0.3900000   0.0100000 )
( -0.5100000  -0.3800000   0.0100000 )
( -0.5100000  -0.3700000   0.0100000 )
( -0.5100000  -0.3600000   0.0100000 )
( -0.5100000  -0.3500000   0.0100000 )
( -0.5100000  -0.3400000   0.0100000 )
( -0.5100000  -0.3300000   0.0100000 )
( -0.5100000  -0.3200000   0.0100000 )
( -0.5100000  -0.3100000   0.0100000 )
( -0.5100000  -0.3000000   0.0100000 )
( -0.5100000  -0.2900000   0.0100000 )
( -0.5100000  -0.2800000   0.0100000 )
( -0.5100000  -0.2700000   0.0100000 )
( -0.5100000  -0.2600000   0.0100000 )
( -0.5100000  -0.2500000   0.0100000 )
( -0.5100000  -0.2400000   0.0100000 )
( -0.5100000  -0.2300000   0.0100000 )
( -0.5100000  -0.2200000   0.0100000 )
( -0.5100000  -0.2100000   0.0100000 )
( -0.5100000  -0.2000000   0.0100000 )
( -0.5100000  -0.1900000   0.0100000 )
( -0.5100000  -0.1800000   0.0100000 )
( -0.5100000  -0.1700000   0.0100000 )
( -0.5100000  -0.1600000   0.0100000 )
( -0.5100000  -0.1500000   0.0100000 )
( -0.5100000  -0.1400000   0.0100000 )
( -0.5100000  -0.1300000   0.0100000 )
( -0.5100000  -0.1200000   0.0100000 )
( -0.5100000  -0.1100000   0.0100000 )
( -0.5100000  -0.1000000   0.0100000 )
( -0.5100000  -0.0900000   0.0100000 )
( -0.5100000  -0.0800000   0.0100000 )
( -0.5100000  -0.0700000   0.0100000 )
( -0.5100000  -0.0600000   0.0100000 )
( -0.5100000  -0.0500000   0.0100000 )
( -0.5100000  -0.0400000   0.0100000 )
( -0.5100000  -0.0300000   0.0100000 )
( -0.5100000  -0.0200000   0.0100000 )
( -0.5100000  -0.0100000   0.0100000 )
( -0.5100000   0.0000000   0.0100000 )
( -0.5100000   0.0100000   0.0100000 )
( -0.5100000   0.0200000   0.0100000 )
( -0.5100000   0.0300000   0.0100000 )
( -0.5100000   0.0400000   0.0100000 )
( -0.5100000   0.0500000   0.0100000 )
( -0.5100000   0.0600000   0.0100000 )
( -0.5100000   0.0700000   0.0100000 )
( -0.5100000   0.0800000   0.0100000 )
( -0.5100000   0.0900000   0.0100000 )
( -0.5100000   0.1000000   0.0100000 )
( -0.5100000   0.1100000   0.0100000 )
( -0.5100000   0.1200000   0.0100000 )
( -0.5100000   0.1300000   0.0100000 )
( -0.5100000   0.1400000   0.0100000 )
( -0.5100000   0.1500000   0.0100000 )
( -0.5100000   0.1600000   0.0100000 )
( -0.5100000   0.1700000   0.0100000 )
( -0.5100000   0.1800000   0.0100000 )
( -0.5100000   0.1900000   0.0100000 )
( -0.5100000   0.2000000   0.0100000 )
( -0.5100000   0.2100000   0.0100000 )
( -0.5100000   0.2200000   0.0100000 )
( -0.5100000   0.2300000   0.0100000 )
( -0.5100000   0.2400000   0.0100000 )
( -0.5100000   0.2500000   0.0100000 )
( -0.5100000   0.2600000   0.0100000 )
( -0.5100000   0.2700000   0.0100000 )
( -0.5100000   0.2800000   0.0100000 )
( -0.5100000   0.2900000   0.0100000 )
( -0.5100000   0.3000000   0.0100000 )
( -0.5100000   0.3100000   0.0100000 )
( -0.5100000   0.3200000   0.0100000 )
( -0.5100000   0.3300000   0.0100000 )
( -0.5100000   0.3400000   0.0100000 )
( -0.5100000   0.3500000   0.0100000 )
( -0.5100000   0.3600000   0.0100000 )
( -0.5100000   0.3700000   0.0100000 )
( -0.5100000   0.3800000   0.0100000 )
( -0.5100000   0.3900000   0.0100000 )
( -0.5100000   0.4000000   0.0100000 )
( -0.5100000   0.4100000   0.0100000 )
( -0.5100000   0.4200000   0.0100000 )
( -0.5100000   0.4300000   0.0100000 )
( -0.5100000   0.4400000   0.0100000 )
( -0.5100000   0.4500000   0.0100000 )
( -0.5100000   0.4600000   0.0100000 )
( -0.5100000   0.4700000   0.0100000 )
( -0.5100000   0.4800000   0.0100000 )
( -0.5100000   0.4900000   0.0100000 )
( -0.5100000   0.5000000   0.0100000 )
( -0.5100000   0.5100000   0.0100000 )
( -0.5100000   0.5200000   0.0100000 )
( -0.5100000   0.5300000   0.0100000 )
( -0.5100000   0.5400000   0.0100000 )
( -0.5100000   0.5500000   0.0100000 )
( -0.5000000  -0.5500000   0.0100000 )
( -0.5000000  -0.5400000   0.0100000 )
( -0.5000000  -0.5300000   0.0100000 )
( -0.5000000  -0.5200000   0.0100000 )
( -0.5000000  -0.5100000   0.0100000 )
( -0.5000000  -0.5000000   0.0100000 )
( -0.5000000  -0.4900000   0.0100000 )
( -0.5000000  -0.4800000   0.0100000 )
( -0.5000000  -0.4700000   0.0100000 )
( -0.5000000  -0.4600000   0.0100000 )
( -0.5000000  -0.4500000   0.0100000 )
( -0.5000000  -0.4400000   0.0100000 )
( -0.5000000  -0.4300000   0.0100000 )
( -0.5000000  -0.4200000   0.0100000 )
( -0.5000000  -0.4100000   0.0100000 )
( -0.5000000  -0.4000000   0.0100000 )
( -0.5000000  -0.3900000   0.0100000 )
( -0.5000000  -0.3800000   0.0100000 )
( -0.5000000  -0.3700000   0.0100000 )
( -0.5000000  -0.3600000   0.0100000 )
( -0.5000000  -0.3500000   0.0100000 )
( -0.5000000  -0.3400000   0.0100000 )
( -0.5000000  -0.3300000   0.0100000 )
( -0.5000000  -0.3200000   0.0100000 )
( -0.5000000  -0.3100000   0.0100000 )
( -0.5000000  -0.3000000   0.0100000 )
( -0.5000000  -0.2900000   0.0100000 )
( -0.5000000  -0.2800000   0.0100000 )
( -0.5000000  -0.2700000   0.0100000 )
( -0.5000000  -0.2600000   0.0100000 )
( -0.5000000  -0.2500000   0.0100000 )
( -0.5000000  -0.2400000   0.0100000 )
( -0.5000000  -0.2300000   0.0100000 )
( -0.5000000  -0.2200000   0.0100000 )
( -0.5000000  -0.2100000   0.0100000 )
( -0.5000000  -0.2000000   0.0100000 )
( -0.5000000  -0.1900000   0.0100000 )
( -0.5000000  -0.1800000   0.0100000 )
( -0.5000000  -0.1700000   0.0100000 )
( -0.5000000  -0.1600000   0.0100000 )
( -0.5000000  -0.1500000   0.0100000 )
( -0.5000000  -0.1400000   0.0100000 )
( -0.5000000  -0.1300000   0.0100000 )
( -0.5000000  -0.1200000   0.0100000 )
( -0.5000000  -0.1100000   0.0100000 )
( -0.5000000  -0.1000000   0.0100000 )
( -0.5000000  -0.0900000   0.0100000 )
( -0.5000000  -0.0800000   0.0100000 )
( -0.5000000  -0.0700000   0.0100000 )
( -0.5000000  -0.0600000   0.0100000 )
( -0.5000000  -0.0500000   0.0100000 )
( -0.5000000  -0.0400000   0.0100000 )
( -0.5000000  -0.0300000   0.0100000 )
( -0.5000000  -0.0200000   0.0100000 )
( -0.5000000  -0.0100000   0.0100000 )
( -0.5000000   0.0000000   0.0100000 )
( -0.5000000   0.0100000   0.0100000 )
( -0.5000000   0.0200000   0.0100000 )
( -0.5000000   0.0300000   0.0100000 )
( -0.5000000   0.0400000   0.0100000 )
( -0.5000000   0.0500000   0.0100000 )
( -0.5000000   0.0600000   0.0100000 )
( -0.5000000   0.0700000   0.0100000 )
( -0.5000000   0.0800000   0.0100000 )
( -0.5000000   0.0900000   0.0100000 )
( -0.5000000   0.1000000   0.0100000 )
( -0.5000000   0.1100000   0.0100000 )
( -0.5000000   0.1200000   0.0100000 )
( -0.5000000   0.1300000   0.0100000 )
( -0.5000000   0.1400000   0.0100000 )
( -0.5000000   0.1500000   0.0100000 )
( -0.5000000   0.1600000   0.0100000 )
( -0.5000000   0.1700000   0.0100000 )
( -0.5000000   0.1800000   0.0100000 )
( -0.5000000   0.1900000   0.0100000 )
( -0.5000000   0.2000000   0.0100000 )
( -0.5000000   0.2100000   0.0100000 )
( -0.5000000   0.2200000   0.0100000 )
( -0.5000000   0.2300000   0.0100000 )
( -0.5000000   0.2400000   0.0100000 )
( -0.5000000   0.2500000   0.0100000 )
( -0.5000000   0.2600000   0.0100000 )
( -0.5000000   0.2700000   0.0100000 )
( -0.5000000   0.2800000   0.0100000 )
( -0.5000000   0.2900000   0.0100000 )
( -0.5000000   0.3000000   0.0100000 )
( -0.5000000   0.3100000   0.0100000 )
( -0.5000000   0.3200000   0.0100000 )
( -0.5000000   0.3300000   0.0100000 )
( -0.5000000   0.3400000   0.0100000 )
( -0.5000000   0.3500000   0.0100000 )
( -0.5000000   0.3600000   0.0100000 )
( -0.5000000   0.3700000   0.0100000 )
( -0.5000000   0.3800000   0.0100000 )
( -0.5000000   0.3900000   0.0100000 )
( -0.5000000   0.4000000   0.0100000 )
( -0.5000000   0.4100000   0.0100000 )
( -0.5000000   0.4200000   0.0100000 )
( -0.5000000   0.4300000   0.0100000 )
( -0.5000000   0.4400000   0.0100000 )
( -0.5000000   0.4500000   0.0100000 )
( -0.5000000   0.4600000   0.0100000 )
( -0.5000000   0.4700000   0.0100000 )
( -0.5000000   0.4800000   0.0100000 )
( -0.5000000   0.4900000   0.0100000 )
( -0.5000000   0.5000000   0.0100000 )
( -0.5000000   0.5100000   0.0100000 )
( -0.5000000   0.5200000   0.0100000 )
( -0.5000000   0.5300000   0.0100000 )
( -0.5000000   0.5400000   0.0100000 )
( -0.5000000   0.5500000   0.0100000 )
( -0.4900000  -0.5500000   0.0100000 )
( -0.4900000  -0.5400000   0.0100000 )
( -0.4900000  -0.5300000   0.0100000 )
( -0.4900000  -0.5200000   0.0100000 )
( -0.4900000  -0.5100000   0.0100000 )
( -0.4900000  -0.5000000   0.0100000 )
( -0.4900000  -0.4900000   0.0100000 )
( -0.4900000  -0.4800000   0.0100000 )
( -0.4900000  -0.4700000   0.0100000 )
( -0.4900000  -0.4600000   0.0100000 )
( -0.4900000  -0.4500000   0.0100000 )
( -0.4900000  -0.4400000   0.0100000 )
( -0.4900000  -0.4300000   0.0100000 )
( -0.4900000  -0.4200000   0.0100000 )
( -0.4900000  -0.4100000   0.0100000 )
( -0.4900000  -0.4000000   0.0100000 )
( -0.4900000  -0.3900000   0.0100000 )
( -0.4900000  -0.3800000   0.0100000 )
( -0.4900000  -0.3700000   0.0100000 )
( -0.4900000  -0.3600000   0.0100000 )
( -0.4900000  -0.3500000   0.0100000 )
( -0.4900000  -0.3400000   0.0100000 )
( -0.4900000  -0.3300000   0.0100000 )
( -0.4900000  -0.3200000   0.0100000 )
( -0.4900000  -0.3100000   0.0100000 )
( -0.4900000  -0.3000000   0.0100000 )
( -0.4900000  -0.2900000   0.0100000 )
( -0.4900000  -0.2800000   0.0100000 )
( -0.4900000  -0.2700000   0.0100000 )
( -0.4900000  -0.2600000   0.0100000 )
( -0.4900000  -0.2500000   0.0100000 )
( -0.4900000  -0.2400000   0.0100000 )
( -0.4900000  -0.2300000   0.0100000 )
( -0.4900000  -0.2200000   0.0100000 )
( -0.4900000  -0.2100000   0.0100000 )
( -0.4900000  -0.2000000   0.0100000 )
( -0.4900000  -0.1900000   0.0100000 )
( -0.4900000  -0.1800000   0.0100000 )
( -0.4900000  -0.1700000   0.0100000 )
( -0.4900000  -0.1600000   0.0100000 )
( -0.4900000  -0.1500000   0.0100000 )
( -0.4900000  -0.1400000   0.0100000 )
( -0.4900000  -0.1300000   0.0100000 )
( -0.4900000  -0.1200000   0.0100000 )
( -0.4900000  -0.1100000   0.0100000 )
( -0.4900000  -0.1000000   0.0100000 )
( -0.4900000  -0.0900000   0.0100000 )
( -0.4900000  -0.0800000   0.0100000 )
( -0.4900000  -0.0700000   0.0100000 )
( -0.4900000  -0.0600000   0.0100000 )
( -0.4900000  -0.0500000   0.0100000 )
( -0.4900000  -0.0400000   0.0100000 )
( -0.4900000  -0.0300000   0.0100000 )
( -0.4900000  -0.0200000   0.0100000 )
( -0.4900000  -0.0100000   0.0100000 )
( -0.4900000   0.0000000   0.0100000 )
( -0.4900000   0.0100000   0.0100000 )
( -0.4900000   0.0200000   0.0100000 )
( -0.4900000   0.0300000   0.0100000 )
( -0.4900000   0.0400000   0.0100000 )
( -0.4900000   0.0500000   0.0100000 )
( -0.4900000   0.0600000   0.0100000 )
( -0.4900000   0.0700000   0.0100000 )
( -0.4900000   0.0800000   0.0100000 )
( -0.4900000   0.0900000   0.0100000 )
( -0.4900000   0.1000000   0.0100000 )
( -0.4900000   0.1100000   0.0100000 )
( -0.4900000   0.1200000   0.0100000 )
( -0.4900000   0.1300000   0.0100000 )
( -0.4900000   0.1400000   0.0100000 )
( -0.4900000   0.1500000   0.0100000 )
( -0.4900000   0.1600000   0.0100000 )
( -0.4900000   0.1700000   0.0100000 )
( -0.4900000   0.1800000   0.0100000 )
( -0.4900000   0.1900000   0.0100000 )
( -0.4900000   0.2000000   0.0100000 )
( -0.4900000   0.2100000   0.0100000 )
( -0.4900000   0.2200000   0.0100000 )
( -0.4900000   0.2300000   0.0100000 )