/*--------------------------------*- C++ -*----------------------------------*\
| =========                 |                                                 |
| \\      /  F ield         | OpenFOAM: The Open Source CFD Toolbox           |
|  \\    /   O peration     | Version:  1.7.1                                 |
|   \\  /    A nd           | Web:      www.OpenFOAM.com                      |
|    \\/     M anipulation  |                                                 |
\*---------------------------------------------------------------------------*/
FoamFile
{
    version     2.0;
    format      ascii;
    class       dictionary;
    location    "system";
    object      controlDict;
}
// * * * * * * * * * * * * * * * * * * * * * * * * * * * * * * * * * * * * * //

application     ibPisoFoam;

//startFrom       startTime;

startFrom       latestTime;

//startTime       0;

stopAt          endTime;

endTime         100;

deltaT          0.002;

writeControl    runTime;

writeInterval  10;

purgeWrite      0;

writeFormat     ascii;

writePrecision  6;

writeCompression uncompressed;

timeFormat      general;

timePrecision   6;

runTimeModifiable yes;

DebugSwitches
{
//	polyMesh 0;
//	meshSearch 1;
//	immersedBoundaryFvMesh 1;
//	cutTriSurfaceMesh 1;
	SolverPerformance 1;
}
functions
{
    wallShearStress
    {
        type            wallShearStress;
        libs            ("libfieldFunctionObjects.so");

        executeControl  timeStep;
        writeControl    writeTime;
    }

    fieldAverage1
    {
        type            fieldAverage;
        libs            ("libfieldFunctionObjects.so");
        writeControl    writeTime;
        fields
        (
            U
            {
                 mean        on;
                 prime2Mean  on;
                 base        time;
            }

            nut
            {
                 mean        on;
                 prime2Mean  off;
                 base        time;
            }

            p
            {
                 mean        on;
                 prime2Mean  off;
                 base        time;
            }

            k
            {
                 mean        on;
                 prime2Mean  off;
                 base        time;
            }
            
            wallShearStress
            {
                 mean        on;
                 prime2Mean  off;
                 base        time;
            }


        );
    }  
/*    forces
    {
        type            forces;
        libs            ("libforces.so");
        patches         (bullet);
		rho				rhoInf;
        rhoInf          998.8;
        log             on;
        writeControl    timeStep;
        writeInterval   1;
        CofR            (0 0 0);
        origin (0 0 0);
        coordinateRotation
        {
           type EulerRotation;
           degrees true;
           rotation (0 0 0);
        }
        binData
        {
            nBin        45;
            direction   (0 0 1);
            cumulative  yes;
        }

    }*/

}


// ************************************************************************* //
