/*--------------------------------*- C++ -*----------------------------------*\
| =========                 |                                                 |
| \\      /  F ield         | OpenFOAM: The Open Source CFD Toolbox           |
|  \\    /   O peration     | Version:  5.x                                   |
|   \\  /    A nd           | Web:      www.OpenFOAM.org                      |
|    \\/     M anipulation  |                                                 |
\*---------------------------------------------------------------------------*/
FoamFile
{
    version     2.0;
    format      ascii;
    class       volScalarField;
    location    "0";
    object      k;
}
// * * * * * * * * * * * * * * * * * * * * * * * * * * * * * * * * * * * * * //

dimensions      [0 2 -2 0 0 0 0];

internalField   uniform 0.00317;

boundaryField
{
    top
    {
        type            zeroGradient;
    }
    bottom
    {
        type            zeroGradient;
    }
    inlet
    {
        type            timeVaryingMappedFixedValue;
        mapMethod       nearest;
        offset          constant 0;
        value           uniform 0.00317;
    }
    outlet
    {
        type            zeroGradient;
    }
    frontAndBack
    {
        type            zeroGradient;
    }
    pier
    {
        type            kqRWallFunction;
        value           uniform 0.00317;
    }
}


// ************************************************************************* //
