/*--------------------------------*- C++ -*----------------------------------*\
| =========                 |                                                 |
| \\      /  F ield         | OpenFOAM: The Open Source CFD Toolbox           |
|  \\    /   O peration     | Version:  5                                     |
|   \\  /    A nd           | Web:      www.OpenFOAM.org                      |
|    \\/     M anipulation  |                                                 |
\*---------------------------------------------------------------------------*/
FoamFile
{
version     2.0;
format      ascii;
class       dictionary;
location    "system";
object      sample;
}
// * * * * * * * * * * * * * * * * * * * * * * * * * * * * * * * * * * * * * //
type sets;
libs            ("libsampling.so");
interpolationScheme cellPoint;
setFormat       raw;
sets
(
somePoints5
{
type    points;
ordered;
axis    xyz;
points 	(
( -0.5500000  -0.7500000   0.0100000 )
( -0.5500000  -0.7399329   0.0100000 )
( -0.5500000  -0.7298658   0.0100000 )
( -0.5500000  -0.7197987   0.0100000 )
( -0.5500000  -0.7097315   0.0100000 )
( -0.5500000  -0.6996644   0.0100000 )
( -0.5500000  -0.6895973   0.0100000 )
( -0.5500000  -0.6795302   0.0100000 )
( -0.5500000  -0.6694631   0.0100000 )
( -0.5500000  -0.6593960   0.0100000 )
( -0.5500000  -0.6493289   0.0100000 )
( -0.5500000  -0.6392617   0.0100000 )
( -0.5500000  -0.6291946   0.0100000 )
( -0.5500000  -0.6191275   0.0100000 )
( -0.5500000  -0.6090604   0.0100000 )
( -0.5500000  -0.5989933   0.0100000 )
( -0.5500000  -0.5889262   0.0100000 )
( -0.5500000  -0.5788591   0.0100000 )
( -0.5500000  -0.5687919   0.0100000 )
( -0.5500000  -0.5587248   0.0100000 )
( -0.5500000  -0.5486577   0.0100000 )
( -0.5500000  -0.5385906   0.0100000 )
( -0.5500000  -0.5285235   0.0100000 )
( -0.5500000  -0.5184564   0.0100000 )
( -0.5500000  -0.5083893   0.0100000 )
( -0.5500000  -0.4983221   0.0100000 )
( -0.5500000  -0.4882550   0.0100000 )
( -0.5500000  -0.4781879   0.0100000 )
( -0.5500000  -0.4681208   0.0100000 )
( -0.5500000  -0.4580537   0.0100000 )
( -0.5500000  -0.4479866   0.0100000 )
( -0.5500000  -0.4379195   0.0100000 )
( -0.5500000  -0.4278523   0.0100000 )
( -0.5500000  -0.4177852   0.0100000 )
( -0.5500000  -0.4077181   0.0100000 )
( -0.5500000  -0.3976510   0.0100000 )
( -0.5500000  -0.3875839   0.0100000 )
( -0.5500000  -0.3775168   0.0100000 )
( -0.5500000  -0.3674497   0.0100000 )
( -0.5500000  -0.3573826   0.0100000 )
( -0.5500000  -0.3473154   0.0100000 )
( -0.5500000  -0.3372483   0.0100000 )
( -0.5500000  -0.3271812   0.0100000 )
( -0.5500000  -0.3171141   0.0100000 )
( -0.5500000  -0.3070470   0.0100000 )
( -0.5500000  -0.2969799   0.0100000 )
( -0.5500000  -0.2869128   0.0100000 )
( -0.5500000  -0.2768456   0.0100000 )
( -0.5500000  -0.2667785   0.0100000 )
( -0.5500000  -0.2567114   0.0100000 )
( -0.5500000  -0.2466443   0.0100000 )
( -0.5500000  -0.2365772   0.0100000 )
( -0.5500000  -0.2265101   0.0100000 )
( -0.5500000  -0.2164430   0.0100000 )
( -0.5500000  -0.2063758   0.0100000 )
( -0.5500000  -0.1963087   0.0100000 )
( -0.5500000  -0.1862416   0.0100000 )
( -0.5500000  -0.1761745   0.0100000 )
( -0.5500000  -0.1661074   0.0100000 )
( -0.5500000  -0.1560403   0.0100000 )
( -0.5500000  -0.1459732   0.0100000 )
( -0.5500000  -0.1359060   0.0100000 )
( -0.5500000  -0.1258389   0.0100000 )
( -0.5500000  -0.1157718   0.0100000 )
( -0.5500000  -0.1057047   0.0100000 )
( -0.5500000  -0.0956376   0.0100000 )
( -0.5500000  -0.0855705   0.0100000 )
( -0.5500000  -0.0755034   0.0100000 )
( -0.5500000  -0.0654362   0.0100000 )
( -0.5500000  -0.0553691   0.0100000 )
( -0.5500000  -0.0453020   0.0100000 )
( -0.5500000  -0.0352349   0.0100000 )
( -0.5500000  -0.0251678   0.0100000 )
( -0.5500000  -0.0151007   0.0100000 )
( -0.5500000  -0.0050336   0.0100000 )
( -0.5500000   0.0050336   0.0100000 )
( -0.5500000   0.0151007   0.0100000 )
( -0.5500000   0.0251678   0.0100000 )
( -0.5500000   0.0352349   0.0100000 )
( -0.5500000   0.0453020   0.0100000 )
( -0.5500000   0.0553691   0.0100000 )
( -0.5500000   0.0654362   0.0100000 )
( -0.5500000   0.0755034   0.0100000 )
( -0.5500000   0.0855705   0.0100000 )
( -0.5500000   0.0956376   0.0100000 )
( -0.5500000   0.1057047   0.0100000 )
( -0.5500000   0.1157718   0.0100000 )
( -0.5500000   0.1258389   0.0100000 )
( -0.5500000   0.1359060   0.0100000 )
( -0.5500000   0.1459732   0.0100000 )
( -0.5500000   0.1560403   0.0100000 )
( -0.5500000   0.1661074   0.0100000 )
( -0.5500000   0.1761745   0.0100000 )
( -0.5500000   0.1862416   0.0100000 )
( -0.5500000   0.1963087   0.0100000 )
( -0.5500000   0.2063758   0.0100000 )
( -0.5500000   0.2164430   0.0100000 )
( -0.5500000   0.2265101   0.0100000 )
( -0.5500000   0.2365772   0.0100000 )
( -0.5500000   0.2466443   0.0100000 )
( -0.5500000   0.2567114   0.0100000 )
( -0.5500000   0.2667785   0.0100000 )
( -0.5500000   0.2768456   0.0100000 )
( -0.5500000   0.2869128   0.0100000 )
( -0.5500000   0.2969799   0.0100000 )
( -0.5500000   0.3070470   0.0100000 )
( -0.5500000   0.3171141   0.0100000 )
( -0.5500000   0.3271812   0.0100000 )
( -0.5500000   0.3372483   0.0100000 )
( -0.5500000   0.3473154   0.0100000 )
( -0.5500000   0.3573826   0.0100000 )
( -0.5500000   0.3674497   0.0100000 )
( -0.5500000   0.3775168   0.0100000 )
( -0.5500000   0.3875839   0.0100000 )
( -0.5500000   0.3976510   0.0100000 )
( -0.5500000   0.4077181   0.0100000 )
( -0.5500000   0.4177852   0.0100000 )
( -0.5500000   0.4278523   0.0100000 )
( -0.5500000   0.4379195   0.0100000 )
( -0.5500000   0.4479866   0.0100000 )
( -0.5500000   0.4580537   0.0100000 )
( -0.5500000   0.4681208   0.0100000 )
( -0.5500000   0.4781879   0.0100000 )
( -0.5500000   0.4882550   0.0100000 )
( -0.5500000   0.4983221   0.0100000 )
( -0.5500000   0.5083893   0.0100000 )
( -0.5500000   0.5184564   0.0100000 )
( -0.5500000   0.5285235   0.0100000 )
( -0.5500000   0.5385906   0.0100000 )
( -0.5500000   0.5486577   0.0100000 )
( -0.5500000   0.5587248   0.0100000 )
( -0.5500000   0.5687919   0.0100000 )
( -0.5500000   0.5788591   0.0100000 )
( -0.5500000   0.5889262   0.0100000 )
( -0.5500000   0.5989933   0.0100000 )
( -0.5500000   0.6090604   0.0100000 )
( -0.5500000   0.6191275   0.0100000 )
( -0.5500000   0.6291946   0.0100000 )
( -0.5500000   0.6392617   0.0100000 )
( -0.5500000   0.6493289   0.0100000 )
( -0.5500000   0.6593960   0.0100000 )
( -0.5500000   0.6694631   0.0100000 )
( -0.5500000   0.6795302   0.0100000 )
( -0.5500000   0.6895973   0.0100000 )
( -0.5500000   0.6996644   0.0100000 )
( -0.5500000   0.7097315   0.0100000 )
( -0.5500000   0.7197987   0.0100000 )
( -0.5500000   0.7298658   0.0100000 )
( -0.5500000   0.7399329   0.0100000 )
( -0.5500000   0.7500000   0.0100000 )
( -0.5400000  -0.7500000   0.0100000 )
( -0.5400000  -0.7399329   0.0100000 )
( -0.5400000  -0.7298658   0.0100000 )
( -0.5400000  -0.7197987   0.0100000 )
( -0.5400000  -0.7097315   0.0100000 )
( -0.5400000  -0.6996644   0.0100000 )
( -0.5400000  -0.6895973   0.0100000 )
( -0.5400000  -0.6795302   0.0100000 )
( -0.5400000  -0.6694631   0.0100000 )
( -0.5400000  -0.6593960   0.0100000 )
( -0.5400000  -0.6493289   0.0100000 )
( -0.5400000  -0.6392617   0.0100000 )
( -0.5400000  -0.6291946   0.0100000 )
( -0.5400000  -0.6191275   0.0100000 )
( -0.5400000  -0.6090604   0.0100000 )
( -0.5400000  -0.5989933   0.0100000 )
( -0.5400000  -0.5889262   0.0100000 )
( -0.5400000  -0.5788591   0.0100000 )
( -0.5400000  -0.5687919   0.0100000 )
( -0.5400000  -0.5587248   0.0100000 )
( -0.5400000  -0.5486577   0.0100000 )
( -0.5400000  -0.5385906   0.0100000 )
( -0.5400000  -0.5285235   0.0100000 )
( -0.5400000  -0.5184564   0.0100000 )
( -0.5400000  -0.5083893   0.0100000 )
( -0.5400000  -0.4983221   0.0100000 )
( -0.5400000  -0.4882550   0.0100000 )
( -0.5400000  -0.4781879   0.0100000 )
( -0.5400000  -0.4681208   0.0100000 )
( -0.5400000  -0.4580537   0.0100000 )
( -0.5400000  -0.4479866   0.0100000 )
( -0.5400000  -0.4379195   0.0100000 )
( -0.5400000  -0.4278523   0.0100000 )
( -0.5400000  -0.4177852   0.0100000 )
( -0.5400000  -0.4077181   0.0100000 )
( -0.5400000  -0.3976510   0.0100000 )
( -0.5400000  -0.3875839   0.0100000 )
( -0.5400000  -0.3775168   0.0100000 )
( -0.5400000  -0.3674497   0.0100000 )
( -0.5400000  -0.3573826   0.0100000 )
( -0.5400000  -0.3473154   0.0100000 )
( -0.5400000  -0.3372483   0.0100000 )
( -0.5400000  -0.3271812   0.0100000 )
( -0.5400000  -0.3171141   0.0100000 )
( -0.5400000  -0.3070470   0.0100000 )
( -0.5400000  -0.2969799   0.0100000 )
( -0.5400000  -0.2869128   0.0100000 )
( -0.5400000  -0.2768456   0.0100000 )
( -0.5400000  -0.2667785   0.0100000 )
( -0.5400000  -0.2567114   0.0100000 )
( -0.5400000  -0.2466443   0.0100000 )
( -0.5400000  -0.2365772   0.0100000 )
( -0.5400000  -0.2265101   0.0100000 )
( -0.5400000  -0.2164430   0.0100000 )
( -0.5400000  -0.2063758   0.0100000 )
( -0.5400000  -0.1963087   0.0100000 )
( -0.5400000  -0.1862416   0.0100000 )
( -0.5400000  -0.1761745   0.0100000 )
( -0.5400000  -0.1661074   0.0100000 )
( -0.5400000  -0.1560403   0.0100000 )
( -0.5400000  -0.1459732   0.0100000 )
( -0.5400000  -0.1359060   0.0100000 )
( -0.5400000  -0.1258389   0.0100000 )
( -0.5400000  -0.1157718   0.0100000 )
( -0.5400000  -0.1057047   0.0100000 )
( -0.5400000  -0.0956376   0.0100000 )
( -0.5400000  -0.0855705   0.0100000 )
( -0.5400000  -0.0755034   0.0100000 )
( -0.5400000  -0.0654362   0.0100000 )
( -0.5400000  -0.0553691   0.0100000 )
( -0.5400000  -0.0453020   0.0100000 )
( -0.5400000  -0.0352349   0.0100000 )
( -0.5400000  -0.0251678   0.0100000 )
( -0.5400000  -0.0151007   0.0100000 )
( -0.5400000  -0.0050336   0.0100000 )
( -0.5400000   0.0050336   0.0100000 )
( -0.5400000   0.0151007   0.0100000 )
( -0.5400000   0.0251678   0.0100000 )
( -0.5400000   0.0352349   0.0100000 )
( -0.5400000   0.0453020   0.0100000 )
( -0.5400000   0.0553691   0.0100000 )
( -0.5400000   0.0654362   0.0100000 )
( -0.5400000   0.0755034   0.0100000 )
( -0.5400000   0.0855705   0.0100000 )
( -0.5400000   0.0956376   0.0100000 )
( -0.5400000   0.1057047   0.0100000 )
( -0.5400000   0.1157718   0.0100000 )
( -0.5400000   0.1258389   0.0100000 )
( -0.5400000   0.1359060   0.0100000 )
( -0.5400000   0.1459732   0.0100000 )
( -0.5400000   0.1560403   0.0100000 )
( -0.5400000   0.1661074   0.0100000 )
( -0.5400000   0.1761745   0.0100000 )
( -0.5400000   0.1862416   0.0100000 )
( -0.5400000   0.1963087   0.0100000 )
( -0.5400000   0.2063758   0.0100000 )
( -0.5400000   0.2164430   0.0100000 )
( -0.5400000   0.2265101   0.0100000 )
( -0.5400000   0.2365772   0.0100000 )
( -0.5400000   0.2466443   0.0100000 )
( -0.5400000   0.2567114   0.0100000 )
( -0.5400000   0.2667785   0.0100000 )
( -0.5400000   0.2768456   0.0100000 )
( -0.5400000   0.2869128   0.0100000 )
( -0.5400000   0.2969799   0.0100000 )
( -0.5400000   0.3070470   0.0100000 )
( -0.5400000   0.3171141   0.0100000 )
( -0.5400000   0.3271812   0.0100000 )
( -0.5400000   0.3372483   0.0100000 )
( -0.5400000   0.3473154   0.0100000 )
( -0.5400000   0.3573826   0.0100000 )
( -0.5400000   0.3674497   0.0100000 )
( -0.5400000   0.3775168   0.0100000 )
( -0.5400000   0.3875839   0.0100000 )
( -0.5400000   0.3976510   0.0100000 )
( -0.5400000   0.4077181   0.0100000 )
( -0.5400000   0.4177852   0.0100000 )
( -0.5400000   0.4278523   0.0100000 )
( -0.5400000   0.4379195   0.0100000 )
( -0.5400000   0.4479866   0.0100000 )
( -0.5400000   0.4580537   0.0100000 )
( -0.5400000   0.4681208   0.0100000 )
( -0.5400000   0.4781879   0.0100000 )
( -0.5400000   0.4882550   0.0100000 )
( -0.5400000   0.4983221   0.0100000 )
( -0.5400000   0.5083893   0.0100000 )
( -0.5400000   0.5184564   0.0100000 )
( -0.5400000   0.5285235   0.0100000 )
( -0.5400000   0.5385906   0.0100000 )
( -0.5400000   0.5486577   0.0100000 )
( -0.5400000   0.5587248   0.0100000 )
( -0.5400000   0.5687919   0.0100000 )
( -0.5400000   0.5788591   0.0100000 )
( -0.5400000   0.5889262   0.0100000 )
( -0.5400000   0.5989933   0.0100000 )
( -0.5400000   0.6090604   0.0100000 )
( -0.5400000   0.6191275   0.0100000 )
( -0.5400000   0.6291946   0.0100000 )
( -0.5400000   0.6392617   0.0100000 )
( -0.5400000   0.6493289   0.0100000 )
( -0.5400000   0.6593960   0.0100000 )
( -0.5400000   0.6694631   0.0100000 )
( -0.5400000   0.6795302   0.0100000 )
( -0.5400000   0.6895973   0.0100000 )
( -0.5400000   0.6996644   0.0100000 )
( -0.5400000   0.7097315   0.0100000 )
( -0.5400000   0.7197987   0.0100000 )
( -0.5400000   0.7298658   0.0100000 )
( -0.5400000   0.7399329   0.0100000 )
( -0.5400000   0.7500000   0.0100000 )
( -0.5300000  -0.7500000   0.0100000 )
( -0.5300000  -0.7399329   0.0100000 )
( -0.5300000  -0.7298658   0.0100000 )
( -0.5300000  -0.7197987   0.0100000 )
( -0.5300000  -0.7097315   0.0100000 )
( -0.5300000  -0.6996644   0.0100000 )
( -0.5300000  -0.6895973   0.0100000 )
( -0.5300000  -0.6795302   0.0100000 )
( -0.5300000  -0.6694631   0.0100000 )
( -0.5300000  -0.6593960   0.0100000 )
( -0.5300000  -0.6493289   0.0100000 )
( -0.5300000  -0.6392617   0.0100000 )
( -0.5300000  -0.6291946   0.0100000 )
( -0.5300000  -0.6191275   0.0100000 )
( -0.5300000  -0.6090604   0.0100000 )
( -0.5300000  -0.5989933   0.0100000 )
( -0.5300000  -0.5889262   0.0100000 )
( -0.5300000  -0.5788591   0.0100000 )
( -0.5300000  -0.5687919   0.0100000 )
( -0.5300000  -0.5587248   0.0100000 )
( -0.5300000  -0.5486577   0.0100000 )
( -0.5300000  -0.5385906   0.0100000 )
( -0.5300000  -0.5285235   0.0100000 )
( -0.5300000  -0.5184564   0.0100000 )
( -0.5300000  -0.5083893   0.0100000 )
( -0.5300000  -0.4983221   0.0100000 )
( -0.5300000  -0.4882550   0.0100000 )
( -0.5300000  -0.4781879   0.0100000 )
( -0.5300000  -0.4681208   0.0100000 )
( -0.5300000  -0.4580537   0.0100000 )
( -0.5300000  -0.4479866   0.0100000 )
( -0.5300000  -0.4379195   0.0100000 )
( -0.5300000  -0.4278523   0.0100000 )
( -0.5300000  -0.4177852   0.0100000 )
( -0.5300000  -0.4077181   0.0100000 )
( -0.5300000  -0.3976510   0.0100000 )
( -0.5300000  -0.3875839   0.0100000 )
( -0.5300000  -0.3775168   0.0100000 )
( -0.5300000  -0.3674497   0.0100000 )
( -0.5300000  -0.3573826   0.0100000 )
( -0.5300000  -0.3473154   0.0100000 )
( -0.5300000  -0.3372483   0.0100000 )
( -0.5300000  -0.3271812   0.0100000 )
( -0.5300000  -0.3171141   0.0100000 )
( -0.5300000  -0.3070470   0.0100000 )
( -0.5300000  -0.2969799   0.0100000 )
( -0.5300000  -0.2869128   0.0100000 )
( -0.5300000  -0.2768456   0.0100000 )
( -0.5300000  -0.2667785   0.0100000 )
( -0.5300000  -0.2567114   0.0100000 )
( -0.5300000  -0.2466443   0.0100000 )
( -0.5300000  -0.2365772   0.0100000 )
( -0.5300000  -0.2265101   0.0100000 )
( -0.5300000  -0.2164430   0.0100000 )
( -0.5300000  -0.2063758   0.0100000 )
( -0.5300000  -0.1963087   0.0100000 )
( -0.5300000  -0.1862416   0.0100000 )
( -0.5300000  -0.1761745   0.0100000 )
( -0.5300000  -0.1661074   0.0100000 )
( -0.5300000  -0.1560403   0.0100000 )
( -0.5300000  -0.1459732   0.0100000 )
( -0.5300000  -0.1359060   0.0100000 )
( -0.5300000  -0.1258389   0.0100000 )
( -0.5300000  -0.1157718   0.0100000 )
( -0.5300000  -0.1057047   0.0100000 )
( -0.5300000  -0.0956376   0.0100000 )
( -0.5300000  -0.0855705   0.0100000 )
( -0.5300000  -0.0755034   0.0100000 )
( -0.5300000  -0.0654362   0.0100000 )
( -0.5300000  -0.0553691   0.0100000 )
( -0.5300000  -0.0453020   0.0100000 )
( -0.5300000  -0.0352349   0.0100000 )
( -0.5300000  -0.0251678   0.0100000 )
( -0.5300000  -0.0151007   0.0100000 )
( -0.5300000  -0.0050336   0.0100000 )
( -0.5300000   0.0050336   0.0100000 )
( -0.5300000   0.0151007   0.0100000 )
( -0.5300000   0.0251678   0.0100000 )
( -0.5300000   0.0352349   0.0100000 )
( -0.5300000   0.0453020   0.0100000 )
( -0.5300000   0.0553691   0.0100000 )
( -0.5300000   0.0654362   0.0100000 )
( -0.5300000   0.0755034   0.0100000 )
( -0.5300000   0.0855705   0.0100000 )
( -0.5300000   0.0956376   0.0100000 )
( -0.5300000   0.1057047   0.0100000 )
( -0.5300000   0.1157718   0.0100000 )
( -0.5300000   0.1258389   0.0100000 )
( -0.5300000   0.1359060   0.0100000 )
( -0.5300000   0.1459732   0.0100000 )
( -0.5300000   0.1560403   0.0100000 )
( -0.5300000   0.1661074   0.0100000 )
( -0.5300000   0.1761745   0.0100000 )
( -0.5300000   0.1862416   0.0100000 )
( -0.5300000   0.1963087   0.0100000 )
( -0.5300000   0.2063758   0.0100000 )
( -0.5300000   0.2164430   0.0100000 )
( -0.5300000   0.2265101   0.0100000 )
( -0.5300000   0.2365772   0.0100000 )
( -0.5300000   0.2466443   0.0100000 )
( -0.5300000   0.2567114   0.0100000 )
( -0.5300000   0.2667785   0.0100000 )
( -0.5300000   0.2768456   0.0100000 )
( -0.5300000   0.2869128   0.0100000 )
( -0.5300000   0.2969799   0.0100000 )
( -0.5300000   0.3070470   0.0100000 )
( -0.5300000   0.3171141   0.0100000 )
( -0.5300000   0.3271812   0.0100000 )
( -0.5300000   0.3372483   0.0100000 )
( -0.5300000   0.3473154   0.0100000 )
( -0.5300000   0.3573826   0.0100000 )
( -0.5300000   0.3674497   0.0100000 )
( -0.5300000   0.3775168   0.0100000 )
( -0.5300000   0.3875839   0.0100000 )
( -0.5300000   0.3976510   0.0100000 )
( -0.5300000   0.4077181   0.0100000 )
( -0.5300000   0.4177852   0.0100000 )
( -0.5300000   0.4278523   0.0100000 )
( -0.5300000   0.4379195   0.0100000 )
( -0.5300000   0.4479866   0.0100000 )
( -0.5300000   0.4580537   0.0100000 )
( -0.5300000   0.4681208   0.0100000 )
( -0.5300000   0.4781879   0.0100000 )
( -0.5300000   0.4882550   0.0100000 )
( -0.5300000   0.4983221   0.0100000 )
( -0.5300000   0.5083893   0.0100000 )
( -0.5300000   0.5184564   0.0100000 )
( -0.5300000   0.5285235   0.0100000 )
( -0.5300000   0.5385906   0.0100000 )
( -0.5300000   0.5486577   0.0100000 )
( -0.5300000   0.5587248   0.0100000 )
( -0.5300000   0.5687919   0.0100000 )
( -0.5300000   0.5788591   0.0100000 )
( -0.5300000   0.5889262   0.0100000 )
( -0.5300000   0.5989933   0.0100000 )
( -0.5300000   0.6090604   0.0100000 )
( -0.5300000   0.6191275   0.0100000 )
( -0.5300000   0.6291946   0.0100000 )
( -0.5300000   0.6392617   0.0100000 )
( -0.5300000   0.6493289   0.0100000 )
( -0.5300000   0.6593960   0.0100000 )
( -0.5300000   0.6694631   0.0100000 )
( -0.5300000   0.6795302   0.0100000 )
( -0.5300000   0.6895973   0.0100000 )
( -0.5300000   0.6996644   0.0100000 )
( -0.5300000   0.7097315   0.0100000 )
( -0.5300000   0.7197987   0.0100000 )
( -0.5300000   0.7298658   0.0100000 )
( -0.5300000   0.7399329   0.0100000 )
( -0.5300000   0.7500000   0.0100000 )
( -0.5200000  -0.7500000   0.0100000 )
( -0.5200000  -0.7399329   0.0100000 )
( -0.5200000  -0.7298658   0.0100000 )
( -0.5200000  -0.7197987   0.0100000 )
( -0.5200000  -0.7097315   0.0100000 )
( -0.5200000  -0.6996644   0.0100000 )
( -0.5200000  -0.6895973   0.0100000 )
( -0.5200000  -0.6795302   0.0100000 )
( -0.5200000  -0.6694631   0.0100000 )
( -0.5200000  -0.6593960   0.0100000 )
( -0.5200000  -0.6493289   0.0100000 )
( -0.5200000  -0.6392617   0.0100000 )
( -0.5200000  -0.6291946   0.0100000 )
( -0.5200000  -0.6191275   0.0100000 )
( -0.5200000  -0.6090604   0.0100000 )
( -0.5200000  -0.5989933   0.0100000 )
( -0.5200000  -0.5889262   0.0100000 )
( -0.5200000  -0.5788591   0.0100000 )
( -0.5200000  -0.5687919   0.0100000 )
( -0.5200000  -0.5587248   0.0100000 )
( -0.5200000  -0.5486577   0.0100000 )
( -0.5200000  -0.5385906   0.0100000 )
( -0.5200000  -0.5285235   0.0100000 )
( -0.5200000  -0.5184564   0.0100000 )
( -0.5200000  -0.5083893   0.0100000 )
( -0.5200000  -0.4983221   0.0100000 )
( -0.5200000  -0.4882550   0.0100000 )
( -0.5200000  -0.4781879   0.0100000 )
( -0.5200000  -0.4681208   0.0100000 )
( -0.5200000  -0.4580537   0.0100000 )
( -0.5200000  -0.4479866   0.0100000 )
( -0.5200000  -0.4379195   0.0100000 )
( -0.5200000  -0.4278523   0.0100000 )
( -0.5200000  -0.4177852   0.0100000 )
( -0.5200000  -0.4077181   0.0100000 )
( -0.5200000  -0.3976510   0.0100000 )
( -0.5200000  -0.3875839   0.0100000 )
( -0.5200000  -0.3775168   0.0100000 )
( -0.5200000  -0.3674497   0.0100000 )
( -0.5200000  -0.3573826   0.0100000 )
( -0.5200000  -0.3473154   0.0100000 )
( -0.5200000  -0.3372483   0.0100000 )
( -0.5200000  -0.3271812   0.0100000 )
( -0.5200000  -0.3171141   0.0100000 )
( -0.5200000  -0.3070470   0.0100000 )
( -0.5200000  -0.2969799   0.0100000 )
( -0.5200000  -0.2869128   0.0100000 )
( -0.5200000  -0.2768456   0.0100000 )
( -0.5200000  -0.2667785   0.0100000 )
( -0.5200000  -0.2567114   0.0100000 )
( -0.5200000  -0.2466443   0.0100000 )
( -0.5200000  -0.2365772   0.0100000 )
( -0.5200000  -0.2265101   0.0100000 )
( -0.5200000  -0.2164430   0.0100000 )
( -0.5200000  -0.2063758   0.0100000 )
( -0.5200000  -0.1963087   0.0100000 )
( -0.5200000  -0.1862416   0.0100000 )
( -0.5200000  -0.1761745   0.0100000 )
( -0.5200000  -0.1661074   0.0100000 )
( -0.5200000  -0.1560403   0.0100000 )
( -0.5200000  -0.1459732   0.0100000 )
( -0.5200000  -0.1359060   0.0100000 )
( -0.5200000  -0.1258389   0.0100000 )
( -0.5200000  -0.1157718   0.0100000 )
( -0.5200000  -0.1057047   0.0100000 )
( -0.5200000  -0.0956376   0.0100000 )
( -0.5200000  -0.0855705   0.0100000 )
( -0.5200000  -0.0755034   0.0100000 )
( -0.5200000  -0.0654362   0.0100000 )
( -0.5200000  -0.0553691   0.0100000 )
( -0.5200000  -0.0453020   0.0100000 )
( -0.5200000  -0.0352349   0.0100000 )
( -0.5200000  -0.0251678   0.0100000 )
( -0.5200000  -0.0151007   0.0100000 )
( -0.5200000  -0.0050336   0.0100000 )
( -0.5200000   0.0050336   0.0100000 )
( -0.5200000   0.0151007   0.0100000 )
( -0.5200000   0.0251678   0.0100000 )
( -0.5200000   0.0352349   0.0100000 )
( -0.5200000   0.0453020   0.0100000 )
( -0.5200000   0.0553691   0.0100000 )
( -0.5200000   0.0654362   0.0100000 )
( -0.5200000   0.0755034   0.0100000 )
( -0.5200000   0.0855705   0.0100000 )
( -0.5200000   0.0956376   0.0100000 )
( -0.5200000   0.1057047   0.0100000 )
( -0.5200000   0.1157718   0.0100000 )
( -0.5200000   0.1258389   0.0100000 )
( -0.5200000   0.1359060   0.0100000 )
( -0.5200000   0.1459732   0.0100000 )
( -0.5200000   0.1560403   0.0100000 )
( -0.5200000   0.1661074   0.0100000 )
( -0.5200000   0.1761745   0.0100000 )
( -0.5200000   0.1862416   0.0100000 )
( -0.5200000   0.1963087   0.0100000 )
( -0.5200000   0.2063758   0.0100000 )
( -0.5200000   0.2164430   0.0100000 )
( -0.5200000   0.2265101   0.0100000 )
( -0.5200000   0.2365772   0.0100000 )
( -0.5200000   0.2466443   0.0100000 )
( -0.5200000   0.2567114   0.0100000 )
( -0.5200000   0.2667785   0.0100000 )
( -0.5200000   0.2768456   0.0100000 )
( -0.5200000   0.2869128   0.0100000 )
( -0.5200000   0.2969799   0.0100000 )
( -0.5200000   0.3070470   0.0100000 )
( -0.5200000   0.3171141   0.0100000 )
( -0.5200000   0.3271812   0.0100000 )
( -0.5200000   0.3372483   0.0100000 )
( -0.5200000   0.3473154   0.0100000 )
( -0.5200000   0.3573826   0.0100000 )
( -0.5200000   0.3674497   0.0100000 )
( -0.5200000   0.3775168   0.0100000 )
( -0.5200000   0.3875839   0.0100000 )
( -0.5200000   0.3976510   0.0100000 )
( -0.5200000   0.4077181   0.0100000 )
( -0.5200000   0.4177852   0.0100000 )
( -0.5200000   0.4278523   0.0100000 )
( -0.5200000   0.4379195   0.0100000 )
( -0.5200000   0.4479866   0.0100000 )
( -0.5200000   0.4580537   0.0100000 )
( -0.5200000   0.4681208   0.0100000 )
( -0.5200000   0.4781879   0.0100000 )
( -0.5200000   0.4882550   0.0100000 )
( -0.5200000   0.4983221   0.0100000 )
( -0.5200000   0.5083893   0.0100000 )
( -0.5200000   0.5184564   0.0100000 )
( -0.5200000   0.5285235   0.0100000 )
( -0.5200000   0.5385906   0.0100000 )
( -0.5200000   0.5486577   0.0100000 )
( -0.5200000   0.5587248   0.0100000 )
( -0.5200000   0.5687919   0.0100000 )
( -0.5200000   0.5788591   0.0100000 )
( -0.5200000   0.5889262   0.0100000 )
( -0.5200000   0.5989933   0.0100000 )
( -0.5200000   0.6090604   0.0100000 )
( -0.5200000   0.6191275   0.0100000 )
( -0.5200000   0.6291946   0.0100000 )
( -0.5200000   0.6392617   0.0100000 )
( -0.5200000   0.6493289   0.0100000 )
( -0.5200000   0.6593960   0.0100000 )
( -0.5200000   0.6694631   0.0100000 )
( -0.5200000   0.6795302   0.0100000 )
( -0.5200000   0.6895973   0.0100000 )
( -0.5200000   0.6996644   0.0100000 )
( -0.5200000   0.7097315   0.0100000 )
( -0.5200000   0.7197987   0.0100000 )
( -0.5200000   0.7298658   0.0100000 )
( -0.5200000   0.7399329   0.0100000 )
( -0.5200000   0.7500000   0.0100000 )
( -0.5100000  -0.7500000   0.0100000 )
( -0.5100000  -0.7399329   0.0100000 )
( -0.5100000  -0.7298658   0.0100000 )
( -0.5100000  -0.7197987   0.0100000 )
( -0.5100000  -0.7097315   0.0100000 )
( -0.5100000  -0.6996644   0.0100000 )
( -0.5100000  -0.6895973   0.0100000 )
( -0.5100000  -0.6795302   0.0100000 )
( -0.5100000  -0.6694631   0.0100000 )
( -0.5100000  -0.6593960   0.0100000 )
( -0.5100000  -0.6493289   0.0100000 )
( -0.5100000  -0.6392617   0.0100000 )
( -0.5100000  -0.6291946   0.0100000 )
( -0.5100000  -0.6191275   0.0100000 )
( -0.5100000  -0.6090604   0.0100000 )
( -0.5100000  -0.5989933   0.0100000 )
( -0.5100000  -0.5889262   0.0100000 )
( -0.5100000  -0.5788591   0.0100000 )
( -0.5100000  -0.5687919   0.0100000 )
( -0.5100000  -0.5587248   0.0100000 )
( -0.5100000  -0.5486577   0.0100000 )
( -0.5100000  -0.5385906   0.0100000 )
( -0.5100000  -0.5285235   0.0100000 )
( -0.5100000  -0.5184564   0.0100000 )
( -0.5100000  -0.5083893   0.0100000 )
( -0.5100000  -0.4983221   0.0100000 )
( -0.5100000  -0.4882550   0.0100000 )
( -0.5100000  -0.4781879   0.0100000 )
( -0.5100000  -0.4681208   0.0100000 )
( -0.5100000  -0.4580537   0.0100000 )
( -0.5100000  -0.4479866   0.0100000 )
( -0.5100000  -0.4379195   0.0100000 )
( -0.5100000  -0.4278523   0.0100000 )
( -0.5100000  -0.4177852   0.0100000 )
( -0.5100000  -0.4077181   0.0100000 )
( -0.5100000  -0.3976510   0.0100000 )
( -0.5100000  -0.3875839   0.0100000 )
( -0.5100000  -0.3775168   0.0100000 )
( -0.5100000  -0.3674497   0.0100000 )
( -0.5100000  -0.3573826   0.0100000 )
( -0.5100000  -0.3473154   0.0100000 )
( -0.5100000  -0.3372483   0.0100000 )
( -0.5100000  -0.3271812   0.0100000 )
( -0.5100000  -0.3171141   0.0100000 )
( -0.5100000  -0.3070470   0.0100000 )
( -0.5100000  -0.2969799   0.0100000 )
( -0.5100000  -0.2869128   0.0100000 )
( -0.5100000  -0.2768456   0.0100000 )
( -0.5100000  -0.2667785   0.0100000 )
( -0.5100000  -0.2567114   0.0100000 )
( -0.5100000  -0.2466443   0.0100000 )
( -0.5100000  -0.2365772   0.0100000 )
( -0.5100000  -0.2265101   0.0100000 )
( -0.5100000  -0.2164430   0.0100000 )
( -0.5100000  -0.2063758   0.0100000 )
( -0.5100000  -0.1963087   0.0100000 )
( -0.5100000  -0.1862416   0.0100000 )
( -0.5100000  -0.1761745   0.0100000 )
( -0.5100000  -0.1661074   0.0100000 )
( -0.5100000  -0.1560403   0.0100000 )
( -0.5100000  -0.1459732   0.0100000 )
( -0.5100000  -0.1359060   0.0100000 )
( -0.5100000  -0.1258389   0.0100000 )
( -0.5100000  -0.1157718   0.0100000 )
( -0.5100000  -0.1057047   0.0100000 )
( -0.5100000  -0.0956376   0.0100000 )
( -0.5100000  -0.0855705   0.0100000 )
( -0.5100000  -0.0755034   0.0100000 )
( -0.5100000  -0.0654362   0.0100000 )
( -0.5100000  -0.0553691   0.0100000 )
( -0.5100000  -0.0453020   0.0100000 )
( -0.5100000  -0.0352349   0.0100000 )
( -0.5100000  -0.0251678   0.0100000 )
( -0.5100000  -0.0151007   0.0100000 )
( -0.5100000  -0.0050336   0.0100000 )
( -0.5100000   0.0050336   0.0100000 )
( -0.5100000   0.0151007   0.0100000 )
( -0.5100000   0.0251678   0.0100000 )
( -0.5100000   0.0352349   0.0100000 )
( -0.5100000   0.0453020   0.0100000 )
( -0.5100000   0.0553691   0.0100000 )
( -0.5100000   0.0654362   0.0100000 )
( -0.5100000   0.0755034   0.0100000 )
( -0.5100000   0.0855705   0.0100000 )
( -0.5100000   0.0956376   0.0100000 )
( -0.5100000   0.1057047   0.0100000 )
( -0.5100000   0.1157718   0.0100000 )
( -0.5100000   0.1258389   0.0100000 )
( -0.5100000   0.1359060   0.0100000 )
( -0.5100000   0.1459732   0.0100000 )
( -0.5100000   0.1560403   0.0100000 )
( -0.5100000   0.1661074   0.0100000 )
( -0.5100000   0.1761745   0.0100000 )
( -0.5100000   0.1862416   0.0100000 )
( -0.5100000   0.1963087   0.0100000 )
( -0.5100000   0.2063758   0.0100000 )
( -0.5100000   0.2164430   0.0100000 )
( -0.5100000   0.2265101   0.0100000 )
( -0.5100000   0.2365772   0.0100000 )
( -0.5100000   0.2466443   0.0100000 )
( -0.5100000   0.2567114   0.0100000 )
( -0.5100000   0.2667785   0.0100000 )
( -0.5100000   0.2768456   0.0100000 )
( -0.5100000   0.2869128   0.0100000 )
( -0.5100000   0.2969799   0.0100000 )
( -0.5100000   0.3070470   0.0100000 )
( -0.5100000   0.3171141   0.0100000 )
( -0.5100000   0.3271812   0.0100000 )
( -0.5100000   0.3372483   0.0100000 )
( -0.5100000   0.3473154   0.0100000 )
( -0.5100000   0.3573826   0.0100000 )
( -0.5100000   0.3674497   0.0100000 )
( -0.5100000   0.3775168   0.0100000 )
( -0.5100000   0.3875839   0.0100000 )
( -0.5100000   0.3976510   0.0100000 )
( -0.5100000   0.4077181   0.0100000 )
( -0.5100000   0.4177852   0.0100000 )
( -0.5100000   0.4278523   0.0100000 )
( -0.5100000   0.4379195   0.0100000 )
( -0.5100000   0.4479866   0.0100000 )
( -0.5100000   0.4580537   0.0100000 )
( -0.5100000   0.4681208   0.0100000 )
( -0.5100000   0.4781879   0.0100000 )
( -0.5100000   0.4882550   0.0100000 )
( -0.5100000   0.4983221   0.0100000 )
( -0.5100000   0.5083893   0.0100000 )
( -0.5100000   0.5184564   0.0100000 )
( -0.5100000   0.5285235   0.0100000 )
( -0.5100000   0.5385906   0.0100000 )
( -0.5100000   0.5486577   0.0100000 )
( -0.5100000   0.5587248   0.0100000 )
( -0.5100000   0.5687919   0.0100000 )
( -0.5100000   0.5788591   0.0100000 )
( -0.5100000   0.5889262   0.0100000 )
( -0.5100000   0.5989933   0.0100000 )
( -0.5100000   0.6090604   0.0100000 )
( -0.5100000   0.6191275   0.0100000 )
( -0.5100000   0.6291946   0.0100000 )
( -0.5100000   0.6392617   0.0100000 )
( -0.5100000   0.6493289   0.0100000 )
( -0.5100000   0.6593960   0.0100000 )
( -0.5100000   0.6694631   0.0100000 )
( -0.5100000   0.6795302   0.0100000 )
( -0.5100000   0.6895973   0.0100000 )
( -0.5100000   0.6996644   0.0100000 )